Version 4
SHEET 1 880 680
WIRE 416 -208 -32 -208
WIRE 240 -192 144 -192
WIRE 416 -192 416 -208
WIRE 416 -192 352 -192
WIRE 480 -192 416 -192
WIRE 144 -176 144 -192
WIRE 240 -176 240 -192
WIRE 352 -160 352 -192
WIRE 352 -160 336 -160
WIRE 480 -160 480 -192
WIRE 496 -160 480 -160
WIRE 336 -128 336 -160
WIRE 352 -128 336 -128
WIRE 496 -128 496 -160
WIRE 496 -128 480 -128
WIRE 240 -64 240 -96
WIRE 352 -48 352 -64
WIRE 416 -48 416 -112
WIRE 416 -48 352 -48
WIRE 480 -48 480 -64
WIRE 608 -48 480 -48
WIRE 672 -48 608 -48
WIRE 352 -16 352 -48
WIRE 480 -16 480 -48
WIRE -32 16 -32 -208
WIRE -32 16 -96 16
WIRE 0 16 -32 16
WIRE -96 32 -96 16
WIRE 0 32 0 16
WIRE 240 32 240 16
WIRE 272 32 240 32
WIRE 288 32 272 32
WIRE 560 32 544 32
WIRE 592 32 560 32
WIRE 672 32 672 16
WIRE 368 48 352 48
WIRE 480 48 464 48
WIRE 592 48 592 32
WIRE 368 80 368 48
WIRE 368 80 352 80
WIRE 464 80 464 48
WIRE 480 80 464 80
WIRE 352 96 352 80
WIRE 416 96 352 96
WIRE 480 96 480 80
WIRE 480 96 416 96
WIRE 80 112 0 112
WIRE 416 112 416 96
WIRE 80 160 80 112
WIRE 80 160 64 160
WIRE 352 160 80 160
WIRE 0 176 -16 176
WIRE 432 176 416 176
WIRE -16 208 -16 176
WIRE 0 208 -16 208
WIRE 432 208 432 176
WIRE 432 208 416 208
WIRE 0 224 0 208
WIRE 416 224 416 208
FLAG 0 224 0
FLAG 416 224 0
FLAG -96 112 0
FLAG 672 32 0
FLAG 144 -176 0
FLAG 592 128 0
FLAG 608 -48 Vo
FLAG 272 32 Vip
FLAG 560 32 Vin
SYMBOL res -16 16 R0
SYMATTR InstName R1
SYMATTR Value 3.6225913k
SYMBOL ECE331\\ALD1101 64 112 M0
SYMATTR InstName M1
SYMBOL ECE331\\ALD1101 352 112 R0
SYMATTR InstName M2
SYMBOL ECE331\\ALD1101 288 -16 R0
SYMATTR InstName M3
SYMBOL ECE331\\ALD1101 544 -16 M0
SYMATTR InstName M4
SYMBOL ECE331\\ALD1102 416 -160 M0
SYMATTR InstName M5
SYMBOL ECE331\\ALD1102 416 -160 R0
SYMATTR InstName M6
SYMBOL voltage -96 16 R0
WINDOW 123 0 0 Left 0
WINDOW 39 0 0 Left 0
SYMATTR InstName V1
SYMATTR Value 5
SYMBOL cap 656 -48 R0
SYMATTR InstName C1
SYMATTR Value 1n
SYMBOL voltage 240 32 R180
WINDOW 0 24 96 Left 2
WINDOW 3 24 68 Left 2
WINDOW 123 0 0 Left 0
WINDOW 39 0 0 Left 0
SYMATTR InstName V2
SYMATTR Value SINE(0 10m 100 0 0 0 10)
SYMBOL voltage 592 32 R0
WINDOW 123 0 0 Left 0
WINDOW 39 0 0 Left 0
SYMATTR InstName V3
SYMATTR Value 3.109
SYMBOL voltage 240 -80 R180
WINDOW 0 24 96 Left 2
WINDOW 3 24 16 Left 2
WINDOW 123 0 0 Left 0
WINDOW 39 0 0 Left 0
SYMATTR InstName V4
SYMATTR Value 3.109
TEXT -128 280 Left 2 !.lib ECE331_354.lib
TEXT -128 312 Left 2 !.tran 100m
