Version 4
SHEET 1 880 680
WIRE 208 -32 112 -32
WIRE 208 32 208 -32
WIRE 320 112 208 112
WIRE 64 160 0 160
WIRE 0 176 0 160
WIRE 208 208 208 192
WIRE 208 208 128 208
WIRE 320 208 320 192
WIRE 320 208 208 208
WIRE 128 224 128 208
FLAG 208 288 0
FLAG 208 176 0
FLAG 0 256 0
FLAG 112 48 0
FLAG 128 288 0
SYMBOL ECE331\\IDEAL_NMOS 144 112 R0
SYMATTR InstName M1
SYMBOL res 192 192 R0
SYMATTR InstName Rsource
SYMATTR Value 20k
SYMBOL res 192 16 R0
SYMATTR InstName RD
SYMATTR Value 8k
SYMBOL res 304 96 R0
SYMATTR InstName Ro
SYMATTR Value 50k
SYMBOL res 160 144 R90
WINDOW 0 0 56 VBottom 2
WINDOW 3 32 56 VTop 2
SYMATTR InstName RS
SYMATTR Value 10k
SYMBOL voltage 0 160 R0
SYMATTR InstName VS
SYMATTR Value ""
SYMBOL voltage 112 -48 R0
WINDOW 123 0 0 Left 0
WINDOW 39 0 0 Left 0
SYMATTR InstName VDD
SYMATTR Value 5
SYMBOL cap 112 224 R0
SYMATTR InstName CL
SYMATTR Value 4.19µ
TEXT 56 400 Left 2 !.lib ECE331_354.lib
TEXT -34 420 Left 2 !.dc VS 0 5 0.001
