Version 4
SHEET 1 880 680
WIRE 112 -240 16 -240
WIRE 320 -240 112 -240
WIRE 16 -224 16 -240
WIRE 112 -208 112 -240
WIRE 112 -208 96 -208
WIRE 320 -208 320 -240
WIRE 336 -208 320 -208
WIRE 560 -208 480 -208
WIRE 560 -192 560 -208
WIRE 96 -176 96 -208
WIRE 112 -176 96 -176
WIRE 336 -176 336 -208
WIRE 336 -176 320 -176
WIRE 192 -160 176 -160
WIRE 256 -160 192 -160
WIRE 16 -128 16 -144
WIRE 480 -128 480 -208
WIRE 112 -96 112 -112
WIRE 192 -96 192 -160
WIRE 192 -96 112 -96
WIRE 560 -96 560 -112
WIRE 320 -80 320 -112
WIRE 416 -80 320 -80
WIRE 112 -64 112 -96
WIRE 320 -32 320 -80
WIRE 384 -32 320 -32
WIRE 384 -16 384 -32
WIRE 480 0 480 -32
WIRE 512 0 480 0
WIRE 528 0 512 0
WIRE 608 0 592 0
WIRE 624 0 608 0
WIRE 112 32 112 16
WIRE 384 48 320 48
WIRE 480 48 480 0
WIRE 320 96 320 48
WIRE 320 96 256 96
WIRE 352 96 320 96
WIRE 416 96 352 96
WIRE 624 96 624 80
WIRE 480 160 480 144
WIRE 256 192 256 176
FLAG 112 32 0
FLAG 560 -96 0
FLAG 256 192 0
FLAG 480 160 0
FLAG 16 -128 0
FLAG 624 96 0
FLAG 512 0 Vx
FLAG 608 0 Vo
FLAG 352 96 Vi
SYMBOL ECE331\\ALD1102 176 -208 M0
SYMATTR InstName M1
SYMBOL ECE331\\ALD1102 256 -208 R0
SYMATTR InstName M2
SYMBOL voltage 16 -240 R0
SYMATTR InstName V1
SYMATTR Value 12
SYMBOL voltage 560 -208 R0
WINDOW 123 0 0 Left 0
WINDOW 39 0 0 Left 0
SYMATTR InstName V2
SYMATTR Value 12
SYMBOL res 96 -80 R0
SYMATTR InstName R1
SYMATTR Value 10.37k
SYMBOL ECE331\\IRF510 416 -128 R0
SYMATTR InstName U1
SYMBOL ECE331\\IRF9510 416 48 R0
SYMATTR InstName U2
SYMBOL cap 368 -16 R0
SYMATTR InstName C1
SYMATTR Value 10µ
SYMBOL res 304 -48 R0
SYMATTR InstName R2
SYMATTR Value 8k
SYMBOL voltage 256 80 R0
WINDOW 123 0 0 Left 0
WINDOW 39 0 0 Left 0
SYMATTR InstName V3
SYMATTR Value SINE(2.12 1.237 1k)
SYMBOL cap 592 -16 R90
WINDOW 0 0 32 VBottom 2
WINDOW 3 32 32 VTop 2
SYMATTR InstName C2
SYMATTR Value 397.88µ
SYMBOL res 608 -16 R0
SYMATTR InstName R3
SYMATTR Value 8
TEXT 408 200 Left 2 !.lib ECE331_354.lib
TEXT 408 232 Left 2 !.tran 50m
TEXT 408 264 Left 2 ;.dc V3 0 12 0.001
