Version 4
SHEET 1 880 680
WIRE 448 -16 272 -16
WIRE 448 0 448 -16
WIRE 272 48 272 -16
WIRE 208 96 176 96
WIRE 448 96 448 80
WIRE 128 160 80 160
WIRE 176 160 176 96
WIRE 176 160 128 160
WIRE 272 176 272 144
WIRE 304 176 272 176
WIRE 336 176 304 176
WIRE 416 176 400 176
WIRE 432 176 416 176
WIRE 80 192 80 160
WIRE 432 192 432 176
WIRE 272 208 272 176
WIRE 176 256 176 160
WIRE 208 256 176 256
WIRE 80 288 80 272
WIRE 432 288 432 272
WIRE 272 320 272 304
FLAG 80 288 0
FLAG 272 320 0
FLAG 432 288 0
FLAG 448 96 0
FLAG 304 176 Vx
FLAG 416 176 Vo
FLAG 128 160 Vi
SYMBOL ECE331\\IRF510 208 48 R0
SYMATTR InstName U1
SYMBOL ECE331\\IRF9510 208 208 R0
SYMATTR InstName U2
SYMBOL cap 400 160 R90
WINDOW 0 0 32 VBottom 2
WINDOW 3 32 32 VTop 2
SYMATTR InstName Cs
SYMATTR Value 397.88µ
SYMBOL res 416 176 R0
SYMATTR InstName RL
SYMATTR Value 8
SYMBOL voltage 80 176 R0
WINDOW 3 -185 60 Left 2
WINDOW 123 0 0 Left 0
WINDOW 39 0 0 Left 0
SYMATTR InstName V1
SYMATTR Value SINE(6 6 1k)
SYMBOL voltage 448 -16 R0
SYMATTR InstName VDD
SYMATTR Value 12
TEXT -32 408 Left 2 !.lib ECE331_354.lib
TEXT -34 436 Left 2 !.tran 50m
