Version 4
SHEET 1 880 680
WIRE 128 160 48 160
WIRE 400 160 368 160
WIRE 48 176 48 160
FLAG 48 256 0
FLAG 400 160 vout_pa
SYMBOL PA_classAB 240 160 R0
SYMATTR InstName X1
SYMBOL voltage 48 160 R0
WINDOW 123 0 0 Left 0
WINDOW 39 0 0 Left 0
SYMATTR InstName V1
SYMATTR Value SINE(0 0.5 1k 0 0 0 50)
TEXT 6 312 Left 2 !.tran 0 50m 0 1u
