Version 4
SHEET 1 880 724
WIRE 208 -192 208 -256
WIRE 80 -32 -320 -32
WIRE 96 -32 80 -32
WIRE 208 -32 208 -112
WIRE 208 -32 96 -32
WIRE 336 -32 208 -32
WIRE 352 -32 336 -32
WIRE 96 16 96 -32
WIRE 336 16 336 -32
WIRE 80 48 80 -32
WIRE 96 48 80 48
WIRE 352 48 352 -32
WIRE 352 48 336 48
WIRE -320 64 -320 -32
WIRE 208 64 160 64
WIRE 272 64 208 64
WIRE 96 160 96 112
WIRE 208 160 208 64
WIRE 208 160 96 160
WIRE 336 160 336 112
WIRE 416 160 336 160
WIRE 96 224 96 160
WIRE 336 224 336 160
WIRE 32 272 16 272
WIRE 416 272 400 272
WIRE 256 288 96 288
WIRE 336 288 256 288
WIRE -320 320 -320 144
WIRE -208 320 -320 320
WIRE 96 368 96 320
WIRE 208 368 96 368
WIRE 336 368 336 320
WIRE 336 368 208 368
WIRE -320 416 -320 320
WIRE 208 416 208 368
WIRE -208 464 -208 320
WIRE -208 464 -256 464
WIRE 144 464 -208 464
WIRE -320 480 -352 480
WIRE 256 480 256 288
WIRE 256 480 208 480
WIRE 208 512 208 496
WIRE -352 560 -352 480
WIRE -320 560 -320 512
WIRE -320 560 -352 560
WIRE -48 560 -320 560
WIRE 208 560 208 512
WIRE 208 560 -48 560
WIRE 256 560 256 480
WIRE 256 560 208 560
WIRE -48 656 -48 640
FLAG 416 160 vout
IOPIN 416 160 Out
FLAG 16 272 vinp
IOPIN 16 272 In
FLAG 416 272 vinn
IOPIN 416 272 In
FLAG 208 -256 0
FLAG -48 656 0
SYMBOL ALD1102 272 16 R0
SYMATTR InstName M1
SYMBOL ALD1101 400 224 M0
SYMATTR InstName M3
SYMBOL ALD1102 160 16 M0
SYMATTR InstName M4
SYMBOL ALD1101 32 224 R0
SYMATTR InstName M5
SYMBOL ALD1101 144 416 R0
SYMATTR InstName M2
SYMBOL ALD1101 -256 416 M0
SYMATTR InstName M6
SYMBOL current -320 64 R0
WINDOW 123 0 0 Left 2
WINDOW 39 0 0 Left 2
SYMATTR InstName I1
SYMATTR Value 0.002
SYMBOL voltage 208 -96 R180
WINDOW 0 24 96 Left 2
WINDOW 3 24 16 Left 2
WINDOW 123 0 0 Left 2
WINDOW 39 0 0 Left 2
SYMATTR InstName V1
SYMATTR Value 5
SYMBOL voltage -48 544 R0
WINDOW 0 24 96 Left 2
WINDOW 3 24 16 Left 2
WINDOW 123 0 0 Left 2
WINDOW 39 0 0 Left 2
SYMATTR InstName V2
SYMATTR Value -5
