Version 4
SHEET 1 880 680
WIRE -528 -208 -736 -208
WIRE -32 -208 -448 -208
WIRE -736 -64 -736 -208
WIRE -576 -64 -736 -64
WIRE -272 -32 -368 -32
WIRE -256 -32 -272 -32
WIRE -32 -32 -32 -208
WIRE -32 -32 -96 -32
WIRE 0 -32 -32 -32
WIRE -624 0 -768 0
WIRE -576 0 -624 0
WIRE -768 32 -768 0
FLAG -816 -208 0
FLAG -768 112 0
FLAG 0 -32 Vout
FLAG -624 0 Vin
FLAG 0 48 0
SYMBOL voltage -768 16 R0
WINDOW 123 0 0 Left 2
WINDOW 39 0 0 Left 2
SYMATTR InstName VG1
SYMATTR Value SINE(0 0.5 1e3)
SYMBOL diffpair -496 -32 R0
SYMATTR InstName X1
SYMBOL res -432 -224 R90
WINDOW 0 0 56 VBottom 2
WINDOW 3 32 56 VTop 2
SYMATTR InstName R1
SYMATTR Value 1K
SYMBOL res -720 -224 R90
WINDOW 0 0 56 VBottom 2
WINDOW 3 32 56 VTop 2
SYMATTR InstName R4
SYMATTR Value 200
SYMBOL res -16 -48 R0
SYMATTR InstName R2
SYMATTR Value 8
SYMBOL PA_classAB -160 -32 R0
SYMATTR InstName X2
TEXT -528 336 Left 2 !.lib ECE331_354.lib
TEXT -528 360 Left 2 !.tran 50m
