Version 4
SHEET 1 880 680
WIRE 288 -16 288 -64
WIRE 224 32 112 32
WIRE 112 112 112 32
WIRE 112 112 0 112
WIRE 144 112 112 112
WIRE 288 112 288 80
WIRE 288 112 224 112
WIRE 368 112 288 112
WIRE 288 160 288 112
WIRE 112 208 112 112
WIRE 224 208 112 208
FLAG 288 -144 0
FLAG 0 112 vin_pa
IOPIN 0 112 In
FLAG 368 112 vout_pa
IOPIN 368 112 Out
FLAG 288 336 0
SYMBOL IRF510 224 160 R0
SYMATTR InstName U1
SYMBOL IRF9510 224 -16 R0
SYMATTR InstName U2
SYMBOL res 240 96 R90
WINDOW 0 0 56 VBottom 2
WINDOW 3 32 56 VTop 2
SYMATTR InstName R1
SYMATTR Value 5e3
SYMBOL voltage 288 -48 R180
WINDOW 0 24 96 Left 2
WINDOW 3 24 16 Left 2
WINDOW 123 0 0 Left 2
WINDOW 39 0 0 Left 2
SYMATTR InstName V1
SYMATTR Value 5
SYMBOL voltage 288 240 M0
WINDOW 0 24 96 Left 2
WINDOW 3 24 16 Left 2
WINDOW 123 0 0 Left 2
WINDOW 39 0 0 Left 2
SYMATTR InstName V2
SYMATTR Value -5
