Version 4
SHEET 1 880 680
WIRE 288 -16 288 -64
WIRE 112 32 112 0
WIRE 112 32 32 32
WIRE 224 32 112 32
WIRE 32 112 32 96
WIRE 32 112 0 112
WIRE 144 112 112 112
WIRE 288 112 288 80
WIRE 288 112 224 112
WIRE 368 112 288 112
WIRE 32 128 32 112
WIRE 288 160 288 112
WIRE 32 208 32 192
WIRE 112 208 112 192
WIRE 112 208 32 208
WIRE 224 208 112 208
WIRE 112 224 112 208
FLAG 288 -144 0
FLAG 0 112 vin_pa
IOPIN 0 112 In
FLAG 368 112 vout_pa
IOPIN 368 112 Out
FLAG 288 336 0
FLAG 112 304 V2
FLAG 112 -80 V1
SYMBOL IRF510 224 160 R0
SYMATTR InstName U1
SYMBOL IRF9510 224 -16 R0
SYMATTR InstName U2
SYMBOL res 240 96 R90
WINDOW 0 14 18 VBottom 2
WINDOW 3 26 23 VTop 2
SYMATTR InstName R1
SYMATTR Value 5k
SYMBOL voltage 288 -48 R180
WINDOW 0 24 96 Left 2
WINDOW 3 24 16 Left 2
WINDOW 123 0 0 Left 2
WINDOW 39 0 0 Left 2
SYMATTR InstName V1
SYMATTR Value 5
SYMBOL voltage 288 240 M0
WINDOW 0 24 96 Left 2
WINDOW 3 24 16 Left 2
WINDOW 123 0 0 Left 2
WINDOW 39 0 0 Left 2
SYMATTR InstName V2
SYMATTR Value -5
SYMBOL res 96 16 R0
WINDOW 3 34 64 Left 2
SYMATTR InstName R2
SYMATTR Value 100k
SYMBOL res 96 96 R0
WINDOW 0 38 53 Left 2
SYMATTR InstName R3
SYMATTR Value 100k
SYMBOL res 96 208 R0
SYMATTR InstName R4
SYMATTR Value 333k
SYMBOL res 96 -96 R0
SYMATTR InstName R5
SYMATTR Value 275k
SYMBOL cap 16 32 R0
SYMATTR InstName C1
SYMATTR Value 10µ
SYMBOL cap 16 128 R0
SYMATTR InstName C2
SYMATTR Value 10µ
TEXT -80 400 Left 2 !.lib ECE331_354.lib
