Version 4
SHEET 1 880 680
WIRE 416 -96 320 -96
WIRE 416 -80 416 -96
WIRE 320 -48 320 -96
WIRE 80 -16 -16 -16
WIRE -16 0 -16 -16
WIRE 256 0 192 0
WIRE 192 16 192 0
WIRE 336 16 320 16
WIRE 80 48 80 -16
WIRE 336 48 336 16
WIRE 336 48 320 48
WIRE 80 144 80 128
WIRE 160 144 80 144
WIRE 80 160 80 144
WIRE 320 160 320 48
WIRE 160 208 160 144
WIRE 160 208 144 208
WIRE 256 208 160 208
WIRE 80 224 64 224
WIRE 336 224 320 224
WIRE 64 256 64 224
WIRE 80 256 64 256
WIRE 336 256 336 224
WIRE 336 256 320 256
WIRE 80 272 80 256
WIRE 320 272 320 256
FLAG -16 80 0
FLAG 192 96 0
FLAG 416 0 0
FLAG 320 272 0
FLAG 80 272 0
SYMBOL ECE331\\ALD1101 144 160 M0
SYMATTR InstName M1
SYMBOL ECE331\\ALD1101 256 160 R0
SYMATTR InstName M2
SYMBOL ECE331\\ALD1101 256 -48 R0
SYMATTR InstName M3
SYMBOL res 64 32 R0
WINDOW 3 22 97 Left 2
SYMATTR Value 3.6225913k
SYMATTR InstName R1
SYMBOL voltage -16 -16 R0
WINDOW 123 0 0 Left 0
WINDOW 39 0 0 Left 0
SYMATTR InstName V1
SYMATTR Value 5
SYMBOL voltage 192 0 R0
WINDOW 123 0 0 Left 0
WINDOW 39 0 0 Left 0
SYMATTR InstName Vb
SYMATTR Value 2.0448
SYMBOL voltage 416 -96 R0
SYMATTR InstName Vo
SYMATTR Value ""
TEXT -48 336 Left 2 !.dc Vo 0 5 0.015
TEXT -48 368 Left 2 !.lib ECE331_354.lib
