Version 4
SHEET 1 880 680
WIRE 112 -32 48 -32
WIRE 48 -16 48 -32
WIRE 112 16 112 -32
WIRE 384 16 304 16
WIRE 384 32 384 16
WIRE 48 80 48 64
WIRE 192 96 112 96
WIRE 112 112 112 96
WIRE 304 112 304 16
WIRE 384 128 384 112
WIRE 192 160 192 96
WIRE 192 160 176 160
WIRE 240 160 192 160
WIRE 112 176 96 176
WIRE 320 176 304 176
WIRE 96 208 96 176
WIRE 112 208 96 208
WIRE 320 208 320 176
WIRE 320 208 304 208
WIRE 112 224 112 208
WIRE 304 224 304 208
FLAG 304 224 0
FLAG 48 80 0
FLAG 112 224 0
FLAG 384 128 0
SYMBOL ECE331\\ALD1101 176 112 M0
SYMATTR InstName M1
SYMBOL ECE331\\ALD1101 240 112 R0
SYMATTR InstName M2
SYMBOL voltage 48 -32 R0
WINDOW 123 0 0 Left 0
WINDOW 39 0 0 Left 0
SYMATTR InstName V1
SYMATTR Value 5
SYMBOL res 96 0 R0
SYMATTR InstName R1
SYMATTR Value 3.6225913k
SYMBOL voltage 384 16 R0
WINDOW 123 0 0 Left 0
WINDOW 39 0 0 Left 0
SYMATTR InstName Vo
SYMATTR Value ""
TEXT -34 264 Left 2 !.dc Vo 0 5 0.001
TEXT -32 288 Left 2 !.lib ECE331_354.lib
