Version 4
SHEET 1 880 680
WIRE 208 32 64 32
WIRE 448 32 208 32
WIRE 64 48 64 32
WIRE 208 48 208 32
WIRE 208 48 192 48
WIRE 448 48 448 32
WIRE 464 48 448 48
WIRE 192 80 192 48
WIRE 208 80 192 80
WIRE 464 80 464 48
WIRE 464 80 448 80
WIRE 288 96 272 96
WIRE 384 96 288 96
WIRE 64 144 64 128
WIRE 288 144 288 96
WIRE 288 144 208 144
WIRE 208 176 208 144
WIRE 448 208 448 144
WIRE 384 256 320 256
WIRE 208 272 208 256
WIRE 320 272 320 256
WIRE 464 272 448 272
WIRE 464 304 464 272
WIRE 464 304 448 304
WIRE 448 320 448 304
WIRE 320 368 320 352
FLAG 208 272 0
FLAG 448 320 0
FLAG 64 144 0
FLAG 320 368 0
SYMBOL ECE331\\ALD1101 384 208 R0
SYMATTR InstName M1
SYMBOL ECE331\\ALD1102 384 48 R0
SYMATTR InstName M2
SYMBOL ECE331\\ALD1102 272 48 M0
SYMATTR InstName M3
SYMBOL res 192 160 R0
SYMATTR InstName R1
SYMBOL voltage 64 32 R0
SYMATTR InstName V1
SYMBOL voltage 320 256 R0
SYMATTR InstName V2
