Version 4
SHEET 1 880 680
WIRE 208 32 64 32
WIRE 448 32 208 32
WIRE 64 48 64 32
WIRE 208 48 208 32
WIRE 208 48 192 48
WIRE 448 48 448 32
WIRE 464 48 448 48
WIRE 192 80 192 48
WIRE 208 80 192 80
WIRE 464 80 464 48
WIRE 464 80 448 80
WIRE 288 96 272 96
WIRE 384 96 288 96
WIRE 64 144 64 128
WIRE 288 144 288 96
WIRE 288 144 208 144
WIRE 208 176 208 144
WIRE 448 176 448 144
WIRE 448 208 448 176
WIRE 384 256 320 256
WIRE 208 272 208 256
WIRE 320 272 320 256
WIRE 464 272 448 272
WIRE 464 304 464 272
WIRE 464 304 448 304
WIRE 448 320 448 304
WIRE 320 368 320 352
FLAG 208 272 0
FLAG 448 320 0
FLAG 64 144 0
FLAG 320 368 0
FLAG 448 176 Vo
SYMBOL ECE331\\ALD1101 384 208 R0
SYMATTR InstName M1
SYMBOL ECE331\\ALD1102 384 48 R0
SYMATTR InstName M2
SYMBOL ECE331\\ALD1102 272 48 M0
SYMATTR InstName M3
SYMBOL res 192 160 R0
SYMATTR InstName R1
SYMATTR Value 3.374k
SYMBOL voltage 64 32 R0
WINDOW 123 0 0 Left 0
WINDOW 39 0 0 Left 0
SYMATTR InstName V1
SYMATTR Value 5
SYMBOL voltage 320 256 R0
WINDOW 3 13 100 Left 2
WINDOW 123 0 0 Left 0
WINDOW 39 0 0 Left 0
SYMATTR Value SINE(1.377 5m 1k 0 0 0 100)
SYMATTR InstName Vi
TEXT 72 328 Left 2 !.tran 10m
TEXT 72 352 Left 2 !.lib ECE331_354.lib
TEXT 72 304 Left 2 ;.dc Vi 0 5 0.001
