Version 4
SHEET 1 880 680
WIRE -80 -32 -160 -32
WIRE -80 96 -80 -32
WIRE -64 96 -80 96
WIRE -64 128 -64 96
WIRE -64 128 -80 128
WIRE -176 144 -208 144
WIRE -144 144 -176 144
WIRE 0 192 -80 192
FLAG -160 48 0
FLAG -80 272 0
FLAG -208 224 0
FLAG 0 192 Vout_M2
FLAG -176 144 Vin_M2
SYMBOL ECE331\\ALD1102 -144 96 R0
SYMATTR InstName M2
SYMBOL voltage -160 -48 R0
WINDOW 123 0 0 Left 0
WINDOW 39 0 0 Left 0
SYMATTR InstName VSS_M2
SYMATTR Value 5
SYMBOL res -96 176 R0
SYMATTR InstName RD_M2
SYMATTR Value 4.31k
SYMBOL voltage -208 128 R0
WINDOW 123 0 0 Left 0
WINDOW 39 0 0 Left 0
WINDOW 0 -107 56 Left 2
WINDOW 3 -211 125 Left 2
SYMATTR InstName V_M2
SYMATTR Value SINE(3.66 5m 1k 0 0 0 10)
TEXT 56 48 Left 2 !.tran 0.01
TEXT 56 88 Left 2 !.lib ECE331_354.lib
