Version 4
SHEET 1 880 680
WIRE -496 -32 -592 -32
WIRE -80 -32 -160 -32
WIRE 320 -32 240 -32
WIRE -496 -16 -496 -32
WIRE 320 -16 320 -32
WIRE -496 80 -496 64
WIRE -448 80 -496 80
WIRE 320 80 320 64
WIRE 400 80 320 80
WIRE -496 96 -496 80
WIRE -80 96 -80 -32
WIRE -64 96 -80 96
WIRE 320 96 320 80
WIRE -64 128 -64 96
WIRE -64 128 -80 128
WIRE -560 144 -624 144
WIRE -144 144 -208 144
WIRE 256 144 192 144
WIRE -480 160 -496 160
WIRE 336 160 320 160
WIRE 0 192 -80 192
WIRE -496 208 -496 192
WIRE -480 208 -480 160
WIRE -480 208 -496 208
WIRE 320 208 320 192
WIRE 336 208 336 160
WIRE 336 208 320 208
WIRE -496 224 -496 208
WIRE 320 224 320 208
FLAG -592 48 0
FLAG -160 48 0
FLAG 240 48 0
FLAG -496 224 0
FLAG -80 272 0
FLAG 320 224 0
FLAG -624 224 0
FLAG 192 224 0
FLAG -208 224 0
FLAG -448 80 Vout_M1
FLAG 0 192 Vout_M2
FLAG 400 80 Vout_M3
SYMBOL ECE331\\ALD1101 256 96 R0
SYMATTR InstName M3
SYMBOL ECE331\\ALD1101 -560 96 R0
SYMATTR InstName M1
SYMBOL ECE331\\ALD1102 -144 96 R0
SYMATTR InstName M2
SYMBOL voltage -592 -48 R0
WINDOW 123 0 0 Left 0
WINDOW 39 0 0 Left 0
SYMATTR InstName VDD_M1
SYMATTR Value 5
SYMBOL voltage -160 -48 R0
WINDOW 123 0 0 Left 0
WINDOW 39 0 0 Left 0
SYMATTR InstName VSS_M2
SYMATTR Value 5
SYMBOL voltage 240 -48 R0
WINDOW 123 0 0 Left 0
WINDOW 39 0 0 Left 0
SYMATTR InstName VDD_M3
SYMATTR Value 1.2
SYMBOL res -96 176 R0
SYMATTR InstName RD_M2
SYMATTR Value 4.31k
SYMBOL res -512 -32 R0
SYMATTR InstName RD_M1
SYMATTR Value 2.16k
SYMBOL res 304 -32 R0
SYMATTR InstName RD_M3
SYMATTR Value 1.25k
SYMBOL voltage -624 128 R0
WINDOW 123 0 0 Left 0
WINDOW 39 0 0 Left 0
SYMATTR InstName Vin_M1
SYMATTR Value 1.377
SYMBOL voltage -208 128 R0
WINDOW 123 0 0 Left 0
WINDOW 39 0 0 Left 0
SYMATTR InstName Vin_M2
SYMATTR Value 3.66
SYMBOL voltage 192 128 R0
WINDOW 123 0 0 Left 0
WINDOW 39 0 0 Left 0
SYMATTR InstName Vin_M3
SYMATTR Value 1.183
TEXT -472 392 Left 2 !.op
TEXT -472 432 Left 2 !.lib ECE331_354.lib
