Version 4
SHEET 1 1052 680
WIRE 320 -32 240 -32
WIRE 320 -16 320 -32
WIRE 320 80 320 64
WIRE 400 80 320 80
WIRE 320 96 320 80
WIRE 224 144 192 144
WIRE 256 144 224 144
WIRE 336 160 320 160
WIRE 320 208 320 192
WIRE 336 208 336 160
WIRE 336 208 320 208
WIRE 320 224 320 208
FLAG 240 48 0
FLAG 320 224 0
FLAG 192 224 0
FLAG 400 80 Vout_M3
FLAG 224 144 Vin_M3
SYMBOL ECE331\\ALD1101 256 96 R0
SYMATTR InstName M3
SYMBOL voltage 240 -48 R0
WINDOW 123 0 0 Left 0
WINDOW 39 0 0 Left 0
SYMATTR InstName VDD_M3
SYMATTR Value 1.2
SYMBOL res 304 -32 R0
SYMATTR InstName RD_M3
SYMATTR Value 1.25k
SYMBOL voltage 192 128 R0
WINDOW 123 0 0 Left 0
WINDOW 39 0 0 Left 0
WINDOW 0 -127 57 Left 2
SYMATTR InstName V_M3
SYMATTR Value 1.183
TEXT 456 -48 Left 2 !.dc V_M3 0 1.2 0.001
TEXT 456 -8 Left 2 !.lib ECE331_354.lib
