Version 4
SHEET 1 880 680
WIRE -496 -32 -592 -32
WIRE -496 -16 -496 -32
WIRE -496 80 -496 64
WIRE -448 80 -496 80
WIRE -496 96 -496 80
WIRE -608 144 -624 144
WIRE -560 144 -608 144
WIRE -480 160 -496 160
WIRE -496 208 -496 192
WIRE -480 208 -480 160
WIRE -480 208 -496 208
WIRE -496 224 -496 208
FLAG -592 48 0
FLAG -496 224 0
FLAG -624 224 0
FLAG -448 80 Vout_M1
FLAG -608 144 Vin_M1
SYMBOL ECE331\\ALD1101 -560 96 R0
SYMATTR InstName M1
SYMBOL voltage -592 -48 R0
WINDOW 123 0 0 Left 0
WINDOW 39 0 0 Left 0
SYMATTR InstName VDD_M1
SYMATTR Value 5
SYMBOL res -512 -32 R0
SYMATTR InstName RD_M1
SYMATTR Value 2.16k
SYMBOL voltage -624 128 R0
WINDOW 123 0 0 Left 0
WINDOW 39 0 0 Left 0
WINDOW 0 -93 57 Left 2
SYMATTR InstName V_M1
SYMATTR Value 1.377
TEXT -272 80 Left 2 !.dc V_M1 0 5 0.001
TEXT -272 120 Left 2 !.lib ECE331_354.lib
